
data_
_chemical_name_mineral ??
_cell_length_a 13.52061
_cell_length_b 5.324839
_cell_length_c 27.214569
_cell_angle_alpha 90
_cell_angle_beta 103.14104
_cell_angle_gamma 90
_cell_volume 1908.00699
_symmetry_space_group_name_H-M P21
loop_
	_symmetry_equiv_pos_as_xyz
	 'x, y, z '
	 '-x, y+1/2, -z '
loop_
_atom_site_label
_atom_site_type_symbol
_atom_site_symmetry_multiplicity
_atom_site_fract_x
_atom_site_fract_y
_atom_site_fract_z
_atom_site_occupancy
_atom_site_B_iso_or_equiv
S1 S   2 0.3546621 -0.2957717 0.08108804 1 1
S2 S   2 0.6755812 -0.0280788 0.5840123 1 1
O1 O   2 0.06678947 0.2563892 0.1650907 1 1
O2 O   2 0.3243706 -0.341335 0.2408742 1 1
O3 O   2 0.6128321 -0.2784507 0.3150544 1 1
O4 O   2 0.7121306 0.4673578 0.4215652 1 1
O5 O   2 0.6625219 0.1611042 0.4686534 1 1
N1 N   2 0.1877348 -0.08989002 0.03840204 1 1
N2 N   2 0.03080703 -0.05775819 0.1071453 1 1
N3 N   2 0.1270116 -0.1321311 0.1871872 1 1
N4 N   2 0.3576642 0.07568779 0.2390309 1 1
N5 N   2 0.6909322 0.05891531 0.3939797 1 1
N6 N   2 0.5300499 0.1797199 0.61393 1 1
C1 C   2 0.3781108 -0.1253647 -0.03182822 1 1
C2 C   2 0.2708177 0.2072732 -0.0248719 1 1
C3 C   2 0.3304277 0.06056533 0.005450475 1 1
C4 C   2 0.2840585 -0.08817653 0.03879459 1 1
C5 C   2 0.1673628 -0.2533547 0.07402124 1 1
C6 C   2 0.2458522 -0.3751034 0.09939052 1 1
C7 C   2 0.06781644 -0.2806028 0.08648511 1 1
C8 C   2 -0.02970163 0.1202828 0.06986328 1 1
C9 C   2 0.07487066 0.03438888 0.1541433 1 1
C10 C   2 0.1854092 -0.05097513 0.2364426 1 1
C11 C   2 0.1437586 -0.16736 0.2809058 1 1
C12 C   2 0.03064613 -0.1494513 0.2729054 1 1
C13 C   2 0.19816 -0.0324076 0.3288847 1 1
C14 C   2 0.2958106 -0.1196127 0.2394089 1 1
C15 C   2 0.4664074 0.05169023 0.239496 1 1
C16 C   2 0.4885761 0.2199777 0.1944772 1 1
C17 C   2 0.5978883 0.2247936 0.1900675 1 1
C18 C   2 0.6369543 0.04298918 0.1641651 1 1
C19 C   2 0.7397323 0.03899283 0.1626117 1 1
C20 C   2 0.8044347 0.226518 0.1869512 1 1
C21 C   2 0.7650037 0.410419 0.2127078 1 1
C22 C   2 0.6646921 0.4119054 0.2144702 1 1
C23 C   2 0.5323296 0.1234301 0.2916211 1 1
C24 C   2 0.6316082 -0.02149513 0.3032671 1 1
C25 C   2 0.716045 0.09053726 0.3449299 1 1
C26 C   2 0.8254925 -0.0363995 0.3467081 1 1
C27 C   2 0.9173163 0.07074555 0.3833482 1 1
C28 C   2 0.9640578 0.2853549 0.3710807 1 1
C29 C   2 1.048564 0.3806732 0.4039602 1 1
C30 C   2 1.086981 0.2652218 0.4489065 1 1
C31 C   2 1.041209 0.0501444 0.4614491 1 1
C32 C   2 0.9557497 -0.04264062 0.4283247 1 1
C33 C   2 0.6915047 0.2469956 0.426145 1 1
C34 C   2 0.65547 0.3487 0.50525 1 1
C35 C   2 0.6219747 0.2342769 0.552054 1 1
C36 C   2 0.5455923 0.3134865 0.5733462 1 1
C37 C   2 0.5941301 -0.005443576 0.6233157 1 1
S1d S   2 0.3562 -0.2987 0.08269 0 1
S2d S   2 0.67655 -0.0326 0.58435 0 1
O1d O   2 0.061 0.2599 0.16301 0 1
O2d O   2 0.3233 -0.3494 0.24015 0 1
O3d O   2 0.6163 -0.2848 0.31582 0 1
O4d O   2 0.7179 0.4767 0.4246 0 1
O5d O   2 0.6687 0.1634 0.47272 0 1
N1d N   2 0.1864 -0.0893 0.0382 0 1
N2d N   2 0.024 -0.0599 0.1038 0 1
N3d N   2 0.1226 -0.1362 0.18546 0 1
N4d N   2 0.3568 0.0766 0.23836 0 1
N5d N   2 0.6965 0.0596 0.39644 0 1
N6d N   2 0.529 0.1802 0.61448 0 1
C1d C   2 0.379 -0.126 -0.0334 0 1
C2d C   2 0.2716 0.215 -0.0261 0 1
C3d C   2 0.3315 0.064 0.0048 0 1
C4d C   2 0.2845 -0.088 0.0389 0 1
C5d C   2 0.1667 -0.256 0.0745 0 1
C6d C   2 0.2459 -0.379 0.1009 0 1
C7d C   2 0.0611 -0.287 0.0827 0 1
C8d C   2 -0.038 0.122 0.0658 0 1
C9d C   2 0.0692 0.034 0.1518 0 1
C10d C   2 0.1823 -0.0535 0.23575 0 1
C11d C   2 0.1441 -0.1699 0.28081 0 1
C12d C   2 0.0295 -0.15 0.2729 0 1
C13d C   2 0.1987 -0.0312 0.32987 0 1
C14d C   2 0.2942 -0.1231 0.23871 0 1
C15d C   2 0.467 0.0523 0.23878 0 1
C16d C   2 0.4867 0.2206 0.19441 0 1
C17d C   2 0.5974 0.2252 0.18995 0 1
C18d C   2 0.6367 0.0396 0.1635 0 1
C19d C   2 0.7405 0.0355 0.162 0 1
C20d C   2 0.8063 0.2269 0.1869 0 1
C21d C   2 0.7666 0.4145 0.2131 0 1
C22d C   2 0.6649 0.416 0.2148 0 1
C23d C   2 0.5344 0.1254 0.292 0 1
C24d C   2 0.6352 -0.0223 0.30383 0 1
C25d C   2 0.7213 0.0921 0.34636 0 1
C26d C   2 0.8229 -0.0393 0.34568 0 1
C27d C   2 0.9166 0.0696 0.38302 0 1
C28d C   2 0.964 0.2884 0.37048 0 1
C29d C   2 1.0502 0.3853 0.404 0 1
C30d C   2 1.0897 0.2673 0.44985 0 1
C31d C   2 1.0434 0.0479 0.4627 0 1
C32d C   2 0.9563 -0.0465 0.42893 0 1
C33d C   2 0.6975 0.2515 0.42934 0 1
C34d C   2 0.6615 0.3546 0.51005 0 1
C35d C   2 0.6222 0.2355 0.55163 0 1
C36d C   2 0.5448 0.3168 0.57314 0 1
C37d C   2 0.5939 -0.0092 0.6242 0 1
C7x C   2 0.06396 -0.28515 0.08274 0 1
C10x C   2 0.18204 -0.05532 0.23663 0 1
C15x C   2 0.46885 0.05504 0.23797 0 1
C25x C   2 0.72502 0.09171 0.34722 0 1
C34x C   2 0.66065 0.35134 0.51118 0 1