
data_
_chemical_name_mineral ??
_cell_length_a 10.0381(8)
_cell_length_b 18.7489(16)
_cell_length_c 20.5935(16)
_cell_angle_alpha 90
_cell_angle_beta 90
_cell_angle_gamma 90
_cell_volume 3875.8(5)
_symmetry_space_group_name_H-M P212121
loop_
	_symmetry_equiv_pos_as_xyz
	 'x, y, z '
	 '-x+1/2, -y, z+1/2 '
	 '-x, y+1/2, -z+1/2 '
	 'x+1/2, -y+1/2, -z '
loop_
_atom_site_label
_atom_site_type_symbol
_atom_site_symmetry_multiplicity
_atom_site_fract_x
_atom_site_fract_y
_atom_site_fract_z
_atom_site_occupancy
_atom_site_B_iso_or_equiv
S1 S   4 0.4770649 1.27855 0.8712698 1 6.0(5)
S2 S   4 0.2592772 0.4064954 0.6987036 1 6.0(5)
O1 O   4 0.6260455 1.004156 1.030112 1 1.0(5)
O2 O   4 0.2741731 0.8558691 1.054462 1 1.0(5)
O3 O   4 0.2509027 0.6243374 0.9982452 1 1.0(5)
H1 H   4 0.2026071 0.5918739 0.983272 1 6(2)
O4 O   4 0.6686942 0.4994602 0.8458446 1 1.0(5)
O5 O   4 0.4453935 0.4785569 0.8599692 1 1.0(5)
N1 N   4 0.5156894 1.145989 0.9011415 1 6.0(8)
N2 N   4 0.4749771 1.095842 1.045051 1 6.0(8)
N3 N   4 0.4347915 0.9822012 1.088592 1 6.0(8)
H2 H   4 0.3576986 0.9986173 1.102395 1 6(2)
N4 N   4 0.476681 0.8107506 1.021996 1 6.0(8)
H3 H   4 0.5634602 0.814111 1.026368 1 6(2)
N5 N   4 0.5650684 0.5335558 0.9403666 1 6.0(8)
H4 H   4 0.6419329 0.5463783 0.9573998 1 6(2)
N6 N   4 0.09460505 0.3735238 0.7920531 1 6.0(8)
C1 C   4 0.5874366 1.135385 0.7510974 1 1.4(5)
H5 H   4 0.6254488 1.101702 0.7782669 1 6(2)
H6 H   4 0.639195 1.180259 0.7502141 1 6(2)
H7 H   4 0.5657505 1.120455 0.7086671 1 6(2)
C2 C   4 0.456188 1.1593 0.7831168 1 1.4(5)
H8 H   4 0.3923243 1.1148 0.7874782 1 6(2)
C3 C   4 0.3823036 1.215745 0.7415572 1 1.4(5)
H9 H   4 0.4256047 1.255525 0.7352399 1 6(2)
H10 H   4 0.2880541 1.227674 0.7654944 1 6(2)
H11 H   4 0.3461992 1.192539 0.7008286 1 6(2)
C4 C   4 0.4854417 1.187947 0.8512599 1 1.4(5)
C5 C   4 0.5149501 1.257676 0.9514998 1 1.4(5)
H12 H   4 0.5282544 1.291389 0.9847242 1 6(2)
C6 C   4 0.5309106 1.185867 0.9581738 1 1.4(5)
C7 C   4 0.57442 1.1488 1.02182 1 1.4(5)
H13 H   4 0.6607133 1.123747 1.012705 1 6(2)
H14 H   4 0.5905857 1.184009 1.056125 1 6(2)
C8 C   4 0.3510359 1.123514 1.07401 1 1.4(5)
H15 H   4 0.3606611 1.126707 1.120299 1 6(2)
H16 H   4 0.2768212 1.092207 1.062826 1 6(2)
H17 H   4 0.3327902 1.171254 1.056133 1 6(2)
C9 C   4 0.5169699 1.025704 1.053937 1 1.4(5)
C10 C   4 0.4749227 0.9075234 1.103281 1 1.4(5)
H18 H   4 0.5722307 0.9015531 1.095855 1 6(2)
C11 C   4 0.4381121 0.8892497 1.175921 1 1.4(5)
H19 H   4 0.3439438 0.891813 1.183714 1 6(2)
C12 C   4 0.5098912 0.9408361 1.223967 1 1.4(5)
H20 H   4 0.6127659 0.9354458 1.216153 1 6(2)
H21 H   4 0.4969736 0.9248941 1.268436 1 6(2)
H22 H   4 0.4866312 0.9870124 1.216436 1 6(2)
C13 C   4 0.4782099 0.8110406 1.190517 1 1.4(5)
H23 H   4 0.5795114 0.8033005 1.179944 1 6(2)
H24 H   4 0.432372 0.777603 1.160767 1 6(2)
H25 H   4 0.4678617 0.7969181 1.234023 1 6(2)
C14 C   4 0.3984839 0.8556639 1.057068 1 1.4(5)
C15 C   4 0.4214254 0.755585 0.9766363 1 1.4(5)
H26 H   4 0.3215389 0.7580058 0.9776208 1 6(2)
C16 C   4 0.4677322 0.7717994 0.9067643 1 1.4(5)
H27 H   4 0.5673689 0.7783663 0.9079383 1 6(2)
H28 H   4 0.4485793 0.7312745 0.8798439 1 6(2)
C17 C   4 0.4034485 0.8387888 0.8761975 1 1.4(5)
C18 C   4 0.4479745 0.9083309 0.8935713 1 1.4(5)
H29 H   4 0.5200597 0.9145772 0.9253758 1 6(2)
C19 C   4 0.387409 0.9683504 0.8665302 1 1.4(5)
H30 H   4 0.4177921 1.015254 0.8814227 1 6(2)
C20 C   4 0.2867402 0.9615548 0.8198879 1 1.4(5)
H31 H   4 0.2522023 1.004349 0.8019381 1 6(2)
C21 C   4 0.2436751 0.8932748 0.8003206 1 1.4(5)
H32 H   4 0.1807198 0.8899869 0.7683282 1 6(2)
C22 C   4 0.3035883 0.832683 0.8284613 1 1.4(5)
H33 H   4 0.2787608 0.7885037 0.8148937 1 6(2)
C23 C   4 0.4647451 0.6802391 0.9991374 1 1.4(5)
H34 H   4 0.5596202 0.6732628 0.98806 1 6(2)
H35 H   4 0.4572476 0.677689 1.047064 1 6(2)
C24 C   4 0.3830363 0.6199749 0.9694727 1 1.4(5)
H36 H   4 0.3755052 0.6279734 0.9220467 1 6(2)
C25 C   4 0.4439378 0.5439838 0.9811793 1 1.4(5)
H37 H   4 0.3758996 0.5079484 0.9682324 1 6(2)
C26 C   4 0.47781 0.5290202 1.054647 1 1.4(5)
H38 H   4 0.5654116 0.551841 1.064795 1 6(2)
H39 H   4 0.4103123 0.5530471 1.081606 1 6(2)
C27 C   4 0.4848345 0.4508326 1.075298 1 1.4(5)
C28 C   4 0.6067972 0.4152155 1.08129 1 1.4(5)
H40 H   4 0.6876316 0.4385786 1.068322 1 6(2)
C29 C   4 0.6135835 0.3442668 1.105052 1 1.4(5)
H41 H   4 0.6986783 0.3211651 1.108259 1 6(2)
C30 C   4 0.4960071 0.3086406 1.121935 1 1.4(5)
H42 H   4 0.5010665 0.2615815 1.138046 1 6(2)
C31 C   4 0.3711464 0.3432147 1.114213 1 1.4(5)
H43 H   4 0.2924104 0.3185876 1.124598 1 6(2)
C32 C   4 0.3665034 0.4134612 1.091706 1 1.4(5)
H44 H   4 0.2845773 0.4363005 1.088195 1 6(2)
C33 C   4 0.5666098 0.5041252 0.8796391 1 1.4(5)
C34 C   4 0.4496215 0.4473725 0.7951236 1 1.4(5)
H45 H   4 0.518403 0.408796 0.7931895 1 6(2)
H46 H   4 0.4740806 0.483344 0.7626925 1 6(2)
C35 C   4 0.3116433 0.4207578 0.7786902 1 1.4(5)
C36 C   4 0.2108855 0.4004189 0.8202718 1 1.4(5)
H47 H   4 0.2243657 0.398915 0.8658825 1 6(2)
C37 C   4 0.1081961 0.3744175 0.7284941 1 1.4(5)
H48 H   4 0.04188814 0.3552548 0.7005024 1 6(2)
C7x C   4 0.57386 1.14761 1.02037 0 1
C10x C   4 0.47475 0.90784 1.10443 0 1
C15x C   4 0.42093 0.75664 0.97798 0 1
C25x C   4 0.44547 0.54298 0.98145 0 1
C34x C   4 0.45057 0.44841 0.7938 0 1